* xyz  0 1
  O    0.034238   -1.051611    0.036820
  C   -0.880485   -1.818628   -0.132566
  C   -1.431699   -2.656658    0.991522
  C   -1.532068   -1.991890   -1.479901
  H   -0.977681   -2.362060    1.935600
  H   -2.519642   -2.562253    1.050554
  H   -1.215881   -3.712630    0.799843
  H   -0.989453   -1.424280   -2.233201
  H   -2.567508   -1.641176   -1.435656
  H   -1.568821   -3.048813   -1.758016
* 

%pal
nprocs 6
end

%basis
GTOName ="system.bas";
GTOAuxName ="system.aux";
end
 

! DFT PBE0 TightSCF  

