* xyz  0 1
  O    0.347830    9.848638    2.499119
  C    0.647923    9.351899    1.442275
  C    0.453584   10.081934    0.138825
  C    1.235329    7.967309    1.354206
  H    0.145990   11.108671    0.326978
  H    1.370486   10.066102   -0.457040
  H   -0.316395    9.575771   -0.452215
  H    1.230783    7.496336    2.335143
  H    2.263066    8.026561    0.983614
  H    0.677320    7.355837    0.639703
* 

%pal
nprocs 6
end

%basis
GTOName ="system.bas";
GTOAuxName ="system.aux";
end
 

%pointcharges "background.crg"
! DFT PBE0 TightSCF  

