* xyz  0 1
  O    0.176612    9.365964    3.821232
  C    0.433991    9.407454    2.644050
  C    0.713961   10.708819    1.938522
  C    0.490824    8.161115    1.799478
  H    0.771158   11.521250    2.660248
  H    1.642611   10.648607    1.364065
  H   -0.087821   10.916209    1.222610
  H    0.169423    7.300002    2.381938
  H    1.514532    8.001256    1.447966
  H   -0.134947    8.269054    0.909228
* 

%pal
nprocs 26
end

%basis
GTOName ="system.bas";
GTOAuxName ="system.aux";
end
 

%pointcharges "background.crg"
! DFT PBE0 TightSCF  

