* xyz  0 1
  O   -0.303698    9.710762    3.105882
  C    0.331926    9.400485    2.129443
  C    0.020347    9.964615    0.767688
  C    1.478821    8.426438    2.205318
  H   -0.734265   10.744440    0.849171
  H    0.922985   10.361241    0.294455
  H   -0.352571    9.166315    0.118039
  H    1.545058    8.004340    3.206078
  H    2.414310    8.940088    1.964241
  H    1.357680    7.628995    1.466945
* 

%pal
nprocs 26
end

%basis
GTOName ="system.bas";
GTOAuxName ="system.aux";
end
 

%pointcharges "background.crg"
! DFT PBE0 TightSCF  

