* xyz  0 1
  O    0.347830    9.848641    2.499119
  C    0.647923    9.351902    1.442275
  C    0.453584   10.081937    0.138825
  C    1.235329    7.967312    1.354206
  H    0.145990   11.108674    0.326978
  H    1.370486   10.066105   -0.457040
  H   -0.316395    9.575774   -0.452215
  H    1.230783    7.496339    2.335143
  H    2.263066    8.026564    0.983614
  H    0.677320    7.355840    0.639703
* 

%pal
nprocs 6
end

%basis
GTOName ="system.bas";
GTOAuxName ="system.aux";
end
 

%pointcharges "background.crg"
! DFT PBE0 TightSCF  
