* xyz  0 1
  O    2.677094   10.173417   13.839622
  C    2.493049   11.071917   13.056967
  C    1.956264   10.820191   11.671976
  C    2.789435   12.506090   13.410795
  H    1.660798    9.777970   11.568634
  H    1.107503   11.475807   11.457992
  H    2.729455   11.052404   10.932620
  H    3.269158   12.558932   14.386062
  H    1.858093   13.079903   13.431669
  H    3.426954   12.967340   12.651450
* 

%pal
nprocs 26
end

%basis
GTOName ="system.bas";
GTOAuxName ="system.aux";
end
 

%pointcharges "background.crg"
! DFT PBE0 TightSCF  

