3
Coordinates from ORCA-job waterOpt E -76.272466673437
  O       0.000000      0.000000      0.000000
  H       0.816490      0.000000      0.577359
  H      -0.816490      0.000000      0.577359
3
Coordinates from ORCA-job waterOpt E -76.276130112066
  O      -0.000000      0.000000     -0.000104
  H       0.763740      0.000000      0.577411
  H      -0.763740      0.000000      0.577411
3
Coordinates from ORCA-job waterOpt E -76.276278474780
  O      -0.000000      0.000000     -0.007167
  H       0.759907      0.000000      0.580942
  H      -0.759907      0.000000      0.580942
3
Coordinates from ORCA-job waterOpt E -76.276325890639
  O      -0.000000      0.000000     -0.013882
  H       0.754010      0.000000      0.584300
  H      -0.754010      0.000000      0.584300
3
Coordinates from ORCA-job waterOpt E -76.276325871437
  O       0.000000      0.000000     -0.013697
  H       0.754409      0.000000      0.584207
  H      -0.754409      0.000000      0.584207
