* xyz  0 1
  O   -0.303698    9.710761    3.105882
  C    0.331926    9.400484    2.129443
  C    0.020347    9.964614    0.767688
  C    1.478821    8.426437    2.205318
  H   -0.734265   10.744439    0.849171
  H    0.922985   10.361240    0.294455
  H   -0.352571    9.166314    0.118039
  H    1.545058    8.004339    3.206078
  H    2.414310    8.940087    1.964241
  H    1.357680    7.628994    1.466945
* 

%pal
nprocs 26
end

%basis
GTOName ="system.bas";
GTOAuxName ="system.aux";
end
 

%pointcharges "background.crg"
! DFT PBE0 TightSCF  

